 &time_control
 run_days                                = 80
 run_hours                           = 0,
 run_minutes                         = 0,
 run_seconds                         = 0,
 start_year                          = 2012, 2014, 2014, 2014
 start_month                         = 08,   08,   08, 08,
 start_day                           = 01,   01,   01, 01,
 start_hour                          = 00,   00,   00, 00,
 end_year                            = 2012, 2014,2014, 2014
 end_month                           = 08,   09,   09, 09,
 end_day                             = 01,   01,   01, 01,
 end_hour                            = 00,   00,   00, 00,
 interval_seconds                    = 21600
 input_from_file                     = .true.,.true.,.true.,.true.,
 history_interval                    = 360,  360,   360, 360,
 frames_per_outfile                  = 2, 1, 1, 1,
 restart                             = .false.,
 restart_interval                    = 14400,

 write_hist_at_0h_rst                = .false.
 adjust_output_times                 = .true.,
 override_restart_timers             = .true.

 io_form_history                     = 2
 io_form_restart                     = 102
 io_form_input                       = 2
 io_form_boundary                    = 2

 io_form_auxinput2		     = 2

 io_form_auxinput4                   = 2
 auxinput4_inname                    = "wrflowinp_d<domain>",
 auxinput4_interval_m                = 360, 360, 360, 360,


 auxhist22_outname = "auxhist_d<domain>_<date>",
 auxhist22_interval = 60, 60, 60, 60
 frames_per_auxhist22 = 24, 24, 24, 24,
 io_form_auxhist22 = 2

 debug_level 			     = 0,
 /

 &diags
 z_lev_diags = 1,
 num_z_levels = 1,
 z_levels = -100
 /
 
&domains
 time_step                           = 120,
 use_adaptive_time_step              = .true.
 step_to_output_time                 = .true.
 target_cfl                          = 1.2
 max_step_increase_pct               = 5, 51
 starting_time_step                  = -1
 max_time_step                       = -1
 min_time_step                       = 1
 time_step_fract_num                 = 0,
 time_step_fract_den                 = 1,
 max_dom                             = 1,

 max_dom                             = 1,

 parent_id         =   1,
 parent_grid_ratio =   1,
 i_parent_start    =   1,
 j_parent_start    =   1,

 e_we              =  630,
 e_sn              =  530,

 e_vert                              = 51,    30,    30,

 p_top_requested                     = 5000,
 num_metgrid_levels                  = 24,
 num_metgrid_soil_levels             = 4,
 sfcp_to_sfcp			     = .true.,

 dx                                  = 12000
 dy                                  = 12000
 grid_id                             = 1, 2, 3,    4,
 parent_time_step_ratio              =  1, 5,     3,   3,

 feedback                            = 0,
 smooth_option                       = 0
 smooth_cg_topo                      = .true.,
/

 &physics
 mp_physics                          = 51,    51,    51,  51,
 cu_physics                          = 16,    6,     0,  0,
 ra_lw_physics                       = 4,    4,    4, 4,
 ra_sw_physics                       = 4,    4,    4, 4,

 ghg_input			     = 1,

 bl_pbl_physics                      = 1,    1,    1, 1,
 sf_sfclay_physics                   = 1,    1,    1, 1,
 sf_surface_physics                  = 4,    4,    4,  4,
 radt                                = 10,    9,    3,  3,
 bldt                                = 0,     0,     0,   0,
 cudt                                = 0,     0,  0,  0, 
 icloud                              = 1,
 num_land_cat                        = 28,
 sf_urban_physics                    = 0,     0,     0,   0,
 sst_update                          = 1,
 sst_skin                            = 1,

 sf_lake_physics		     = 1, 1, 1,  1, 
 use_lakedepth			     = 1, 1, 1,  1,

 /

 &fdda
 grid_fdda                           = 2
 gfdda_inname                        = "wrffdda_d<domain>"
 gfdda_interval_m                    = 360,
 gfdda_end_h                         = 4800000,
 io_form_gfdda                       = 2
 fgdt                                = 0,
 if_no_pbl_nudging_uv                = 1
 if_no_pbl_nudging_t                 = 1
 if_no_pbl_nudging_q                 = 1
 if_no_pbl_nudging_ph	 	     = 1
 if_zfac_uv                          = 0
 if_zfac_t                           = 0
 if_zfac_q                           = 0
 guv                                 = 0.00003
 gt                                  = 0.00003
 gq			             = 0.0
 gph                                 = 0.0
 xwavenum			     = 5
 ywavenum                            = 4

 /

 &dynamics
 hybrid_opt                          = 0, 
 w_damping                           = 1,
 diff_opt                            = 2,      1,      1,    1,
 km_opt                              = 4,      4,      4,    4,
 diff_6th_opt                        = 0,      0,      0,    0, 
 diff_6th_factor                     = 0.12,   0.12,   0.12,    0.12,
 base_temp                           = 290.
 damp_opt                            = 3,
 zdamp                               = 10000.,  10000.,  10000.,
 dampcoef                            = 0.2,    0.2,    0.2,  0.2,
 khdif                               = 0,      0,      0,    0.,
 kvdif                               = 0,      0,      0,    0.,
 non_hydrostatic                     = .true., .true., .true., .true.,
 moist_adv_opt                       = 1,      1,      1,     1,
 scalar_adv_opt                      = 1,      1,      1,     1,
 gwd_opt                             = 0,
 /

 &noah_mp
 opt_run                             = 3,
 dveg                                = 5,
 /

 &bdy_control
 spec_bdy_width                      = 20,
 specified                           = .true.
 /

 &grib2
 /

 &namelist_quilt
 nio_tasks_per_group = 0,
 nio_groups = 1,
 /

